# generated using pymatgen
data_GdN2
_symmetry_space_group_name_H-M   'P 1'
_cell_length_a   3.77477400
_cell_length_b   3.73740000
_cell_length_c   20.00000000
_cell_angle_alpha   90.00000000
_cell_angle_beta   90.00000000
_cell_angle_gamma   60.00000000
_symmetry_Int_Tables_number   1
_chemical_formula_structural   GdN2
_chemical_formula_sum   'Gd1 N2'
_cell_volume   244.35496267
_cell_formula_units_Z   1
loop_
 _symmetry_equiv_pos_site_id
 _symmetry_equiv_pos_as_xyz
  1  'x, y, z'
loop_
 _atom_site_type_symbol
 _atom_site_label
 _atom_site_symmetry_multiplicity
 _atom_site_fract_x
 _atom_site_fract_y
 _atom_site_fract_z
 _atom_site_occupancy
  Gd  Gd0  1  0.00000000  0.00000000  0.50000000  1
  N  N1  1  0.66666700  0.66666700  0.54310600  1
  N  N2  1  0.33333300  0.33333300  0.45689400  1
