# generated using pymatgen
data_GdN2
_symmetry_space_group_name_H-M   'P 1'
_cell_length_a   20.00000000
_cell_length_b   4.37275800
_cell_length_c   96.20067600
_cell_angle_alpha   120.00000000
_cell_angle_beta   90.00000000
_cell_angle_gamma   90.00000000
_symmetry_Int_Tables_number   1
_chemical_formula_structural   GdN2
_chemical_formula_sum   'Gd14 N28'
_cell_volume   7286.08434140
_cell_formula_units_Z   14
loop_
 _symmetry_equiv_pos_site_id
 _symmetry_equiv_pos_as_xyz
  1  'x, y, z'
loop_
 _atom_site_type_symbol
 _atom_site_label
 _atom_site_symmetry_multiplicity
 _atom_site_fract_x
 _atom_site_fract_y
 _atom_site_fract_z
 _atom_site_occupancy
  Gd  Gd0  1  0.50000000  0.00000000  0.20454544  1
  N  N1  1  0.46537211  0.33335577  0.18939607  1
  N  N2  1  0.53459554  0.66664220  0.21969485  1
  Gd  Gd3  1  0.50000000  0.00000000  0.24999999  1
  N  N4  1  0.46537211  0.33335577  0.23485062  1
  N  N5  1  0.53459554  0.66664220  0.26514939  1
  Gd  Gd6  1  0.50000000  0.00000000  0.29545453  1
  N  N7  1  0.46537211  0.33335577  0.28030516  1
  N  N8  1  0.53459554  0.66664220  0.31060394  1
  Gd  Gd9  1  0.50000000  0.00000000  0.34090908  1
  N  N10  1  0.46537211  0.33335577  0.32575971  1
  N  N11  1  0.53459554  0.66664220  0.35605849  1
  Gd  Gd12  1  0.50000000  0.00000000  0.38636362  1
  N  N13  1  0.46537211  0.33335577  0.37121425  1
  N  N14  1  0.53459554  0.66664220  0.40151303  1
  Gd  Gd15  1  0.50000000  0.00000000  0.43181817  1
  N  N16  1  0.46537211  0.33335577  0.41666880  1
  N  N17  1  0.53459554  0.66664220  0.44696758  1
  Gd  Gd18  1  0.50000000  0.00000000  0.47727271  1
  N  N19  1  0.46537211  0.33335577  0.46212335  1
  N  N20  1  0.53459554  0.66664220  0.49242212  1
  Gd  Gd21  1  0.50000000  0.00000000  0.52272726  1
  N  N22  1  0.46537211  0.33335577  0.50757789  1
  N  N23  1  0.53459554  0.66664220  0.53787667  1
  Gd  Gd24  1  0.50000000  0.00000000  0.56818181  1
  N  N25  1  0.46537211  0.33335577  0.55303244  1
  N  N26  1  0.53459554  0.66664220  0.58333121  1
  Gd  Gd27  1  0.50000000  0.00000000  0.61363635  1
  N  N28  1  0.46537211  0.33335577  0.59848698  1
  N  N29  1  0.53459554  0.66664220  0.62878576  1
  Gd  Gd30  1  0.50000000  0.00000000  0.65909090  1
  N  N31  1  0.46537211  0.33335577  0.64394153  1
  N  N32  1  0.53459554  0.66664220  0.67424030  1
  Gd  Gd33  1  0.50000000  0.00000000  0.70454544  1
  N  N34  1  0.46537211  0.33335577  0.68939607  1
  N  N35  1  0.53459554  0.66664220  0.71969485  1
  Gd  Gd36  1  0.50000000  0.00000000  0.74999999  1
  N  N37  1  0.46537211  0.33335577  0.73485062  1
  N  N38  1  0.53459554  0.66664220  0.76514939  1
  Gd  Gd39  1  0.50000000  0.00000000  0.79545453  1
  N  N40  1  0.46537211  0.33335577  0.78030516  1
  N  N41  1  0.53459554  0.66664220  0.81060394  1
